Program Version,EnergyPlus, Version 9.1.0-08d2e308bb, YMD=2019.06.18 12:44,
   ** Warning ** Weather file location will be used rather than entered (IDF) Location object.
   **   ~~~   ** ..Location object=TENA
   **   ~~~   ** ..Weather File Location=TENA - - MN7 WMO#=999
   **   ~~~   ** ..due to location differences, Latitude difference=[76.84] degrees, Longitude difference=[76.81] degrees.
   **   ~~~   ** ..Time Zone difference=[0.0] hour(s), Elevation difference=[4890.00] percent, [489.00] meters.
   ** Warning ** SetUpDesignDay: Entered DesignDay Barometric Pressure=81198 differs by more than 10% from Standard Barometric Pressure=95472.
   **   ~~~   ** ...occurs in DesignDay=DENVER CENTENNIAL  GOLDEN   N ANN HTG 99% CONDNS DB, Standard Pressure (based on elevation) will be used.
   ** Warning ** GetHTSurfaceData: Surfaces with interface to Ground found but no "Ground Temperatures" were input.
   **   ~~~   ** Found first in surface=52C6BE
   **   ~~~   ** Defaults, constant throughout the year of (18.0) will be used.
   ** Warning ** CalculateZoneVolume: 1 zone is not fully enclosed. For more details use:  Output:Diagnostics,DisplayExtrawarnings; 
   ** Warning ** SetUpDesignDay: Entered DesignDay Barometric Pressure=81198 differs by more than 10% from Standard Barometric Pressure=95472.
   **   ~~~   ** ...occurs in DesignDay=DENVER CENTENNIAL  GOLDEN   N ANN CLG 1% CONDNS DB=>MWB, Standard Pressure (based on elevation) will be used.
   ************* Testing Individual Branch Integrity
   ************* All Branches passed integrity testing
   ************* Testing Individual Supply Air Path Integrity
   ************* All Supply Air Paths passed integrity testing
   ************* Testing Individual Return Air Path Integrity
   ************* All Return Air Paths passed integrity testing
   ************* No node connection errors were found.
   ************* Beginning Simulation
   ************* Simulation Error Summary *************
   ************* EnergyPlus Warmup Error Summary. During Warmup: 0 Warning; 0 Severe Errors.
   ************* EnergyPlus Sizing Error Summary. During Sizing: 0 Warning; 0 Severe Errors.
   ************* EnergyPlus Completed Successfully-- 5 Warning; 0 Severe Errors; Elapsed Time=00hr 04min 51.74sec
