  0
SECTION
  2
ENTITIES
999
DXF created from EnergyPlus
999
Program Version,EnergyPlus, Version 9.1.0-08d2e308bb, YMD=2019.06.18 12:44
999
DXF using Wireframe  
999
Color Scheme,Default
999
Text - True North
  0
TEXT
  8
1
  6
Continuous
 62
  3
 10
       18.21657
 20
        3.11052
 30
        0.10000
 40
 .25
  1
True North
 41
 0.0
  7
MONOTXT
210
0.0
220
0.0
230
1.0
999
Text - Building Title
  0
TEXT
  8
1
  6
Continuous
 62
  3
 10
       15.21657
 20
       -0.88948
 30
        0.10000
 40
 .4
  1
Building - Tolita bamboo
 41
 0.0
  7
MONOTXT
210
0.0
220
0.0
230
1.0
999
North Arrow Stem
  0
3DFACE
  8
1
 62
  3
 10
       19.21657
 20
        3.11052
 30
        0.10000
 11
       19.21657
 21
        3.11052
 31
        0.00000
 12
       19.21657
 22
        0.11052
 32
        0.00000
 13
       19.21657
 23
        0.11052
 33
        0.10000
999
North Arrow Head 1
  0
3DFACE
  8
1
 62
  3
 10
       19.21657
 20
        3.11052
 30
        0.10000
 11
       19.21657
 21
        3.11052
 31
        0.00000
 12
       18.71657
 22
        2.24450
 32
        0.00000
 13
       18.71657
 23
        2.24450
 33
        0.10000
999
North Arrow Head 2
  0
3DFACE
  8
1
 62
  3
 10
       19.21657
 20
        3.11052
 30
        0.10000
 11
       19.21657
 21
        3.11052
 31
        0.00000
 12
       19.71657
 22
        2.24450
 32
        0.00000
 13
       19.71657
 23
        2.24450
 33
        0.10000
999
North Arrow Side 1
  0
3DFACE
  8
1
 62
  3
 10
       18.71657
 20
        4.61052
 30
        0.10000
 11
       18.71657
 21
        4.61052
 31
        0.00000
 12
       18.71657
 22
        3.61052
 32
        0.00000
 13
       18.71657
 23
        3.61052
 33
        0.10000
999
North Arrow Side 2
  0
3DFACE
  8
1
 62
  3
 10
       18.71657
 20
        4.61052
 30
        0.10000
 11
       18.71657
 21
        4.61052
 31
        0.00000
 12
       19.71657
 22
        3.61052
 32
        0.00000
 13
       19.71657
 23
        3.61052
 33
        0.10000
999
North Arrow Side 3
  0
3DFACE
  8
1
 62
  3
 10
       19.71657
 20
        4.61052
 30
        0.10000
 11
       19.71657
 21
        4.61052
 31
        0.00000
 12
       19.71657
 22
        3.61052
 32
        0.00000
 13
       19.71657
 23
        3.61052
 33
        0.10000
999
Zone Names
999
Zone=1:ZONE_ONE
999
ZONE ONE:67F1E0
  0
POLYLINE
  8
ZONE_ONE_1
 62
 43
 66
  1
 10
 0.0
 20
 0.0
 30
        3.75210
 70
   9
 40
 0.55
 41
 0.55
  0
VERTEX
  8
ZONE_ONE_1
 10
       48.71657
 20
        8.67381
 30
       12.33240
  0
VERTEX
  8
ZONE_ONE_1
 10
       45.05417
 20
       13.76916
 30
        3.75210
  0
VERTEX
  8
ZONE_ONE_1
 10
       45.05417
 20
       15.38226
 30
        7.80210
  0
SEQEND
  8
ZONE_ONE_1
999
ZONE ONE:1170EB
  0
POLYLINE
  8
ZONE_ONE_2
 62
 43
 66
  1
 10
 0.0
 20
 0.0
 30
        3.75210
 70
   9
 40
 0.55
 41
 0.55
  0
VERTEX
  8
ZONE_ONE_2
 10
       48.71657
 20
        8.67381
 30
       12.33240
  0
VERTEX
  8
ZONE_ONE_2
 10
       45.05417
 20
        3.89526
 30
        3.75210
  0
VERTEX
  8
ZONE_ONE_2
 10
       45.05417
 20
       13.76916
 30
        3.75210
  0
SEQEND
  8
ZONE_ONE_2
999
ZONE ONE:5424C7
  0
POLYLINE
  8
ZONE_ONE_3
 62
 43
 66
  1
 10
 0.0
 20
 0.0
 30
        3.75210
 70
   9
 40
 0.55
 41
 0.55
  0
VERTEX
  8
ZONE_ONE_3
 10
       29.21657
 20
        8.67381
 30
       12.33240
  0
VERTEX
  8
ZONE_ONE_3
 10
       32.26802
 20
        3.89526
 30
        3.75210
  0
VERTEX
  8
ZONE_ONE_3
 10
       32.26802
 20
        1.96536
 30
        7.80210
  0
SEQEND
  8
ZONE_ONE_3
999
ZONE ONE:878904
  0
POLYLINE
  8
ZONE_ONE_4
 62
 43
 66
  1
 10
 0.0
 20
 0.0
 30
        3.75210
 70
   9
 40
 0.55
 41
 0.55
  0
VERTEX
  8
ZONE_ONE_4
 10
       32.26802
 20
       15.38226
 30
        7.80210
  0
VERTEX
  8
ZONE_ONE_4
 10
       32.26802
 20
       13.76916
 30
        3.75210
  0
VERTEX
  8
ZONE_ONE_4
 10
       29.21657
 20
        8.67381
 30
       12.33240
  0
SEQEND
  8
ZONE_ONE_4
999
ZONE ONE:B3FCF3
  0
POLYLINE
  8
ZONE_ONE_5
 62
 43
 66
  1
 10
 0.0
 20
 0.0
 30
        3.75210
 70
   9
 40
 0.55
 41
 0.55
  0
VERTEX
  8
ZONE_ONE_5
 10
       45.05417
 20
       15.38226
 30
        7.80210
  0
VERTEX
  8
ZONE_ONE_5
 10
       45.05417
 20
       13.76916
 30
        3.75210
  0
VERTEX
  8
ZONE_ONE_5
 10
       32.26802
 20
       13.76916
 30
        3.75210
  0
VERTEX
  8
ZONE_ONE_5
 10
       32.26802
 20
       15.38226
 30
        7.80210
  0
SEQEND
  8
ZONE_ONE_5
999
ZONE ONE:E9E959
  0
POLYLINE
  8
ZONE_ONE_6
 62
 43
 66
  1
 10
 0.0
 20
 0.0
 30
        3.75210
 70
   9
 40
 0.55
 41
 0.55
  0
VERTEX
  8
ZONE_ONE_6
 10
       29.21657
 20
        8.67381
 30
       12.33240
  0
VERTEX
  8
ZONE_ONE_6
 10
       32.26802
 20
       13.76916
 30
        3.75210
  0
VERTEX
  8
ZONE_ONE_6
 10
       32.26802
 20
        3.89526
 30
        3.75210
  0
SEQEND
  8
ZONE_ONE_6
999
ZONE ONE:AEA7C2
  0
POLYLINE
  8
ZONE_ONE_7
 62
 43
 66
  1
 10
 0.0
 20
 0.0
 30
        3.75210
 70
   9
 40
 0.55
 41
 0.55
  0
VERTEX
  8
ZONE_ONE_7
 10
       45.05417
 20
        1.96536
 30
        7.80210
  0
VERTEX
  8
ZONE_ONE_7
 10
       45.05417
 20
        3.89526
 30
        3.75210
  0
VERTEX
  8
ZONE_ONE_7
 10
       48.71657
 20
        8.67381
 30
       12.33240
  0
SEQEND
  8
ZONE_ONE_7
999
ZONE ONE:800C25
  0
POLYLINE
  8
ZONE_ONE_8
 62
 43
 66
  1
 10
 0.0
 20
 0.0
 30
        3.75210
 70
   9
 40
 0.55
 41
 0.55
  0
VERTEX
  8
ZONE_ONE_8
 10
       32.26802
 20
        1.96536
 30
        7.80210
  0
VERTEX
  8
ZONE_ONE_8
 10
       32.26802
 20
        3.89526
 30
        3.75210
  0
VERTEX
  8
ZONE_ONE_8
 10
       45.05417
 20
        3.89526
 30
        3.75210
  0
VERTEX
  8
ZONE_ONE_8
 10
       45.05417
 20
        1.96536
 30
        7.80210
  0
SEQEND
  8
ZONE_ONE_8
999
ZONE ONE:52C6BE
  0
POLYLINE
  8
ZONE_ONE_9
 62
  8
 66
  1
 10
 0.0
 20
 0.0
 30
        3.75210
 70
   9
 40
 0.55
 41
 0.55
  0
VERTEX
  8
ZONE_ONE_9
 10
       45.05417
 20
       13.76916
 30
        3.75210
  0
VERTEX
  8
ZONE_ONE_9
 10
       45.05417
 20
        3.89526
 30
        3.75210
  0
VERTEX
  8
ZONE_ONE_9
 10
       32.26802
 20
        3.89526
 30
        3.75210
  0
VERTEX
  8
ZONE_ONE_9
 10
       32.26802
 20
       13.76916
 30
        3.75210
  0
SEQEND
  8
ZONE_ONE_9
999
ZONE ONE:6401E7
  0
POLYLINE
  8
ZONE_ONE_10
 62
 15
 66
  1
 10
 0.0
 20
 0.0
 30
        7.80210
 70
   9
 40
 0.55
 41
 0.55
  0
VERTEX
  8
ZONE_ONE_10
 10
       48.71657
 20
        8.67381
 30
       12.33240
  0
VERTEX
  8
ZONE_ONE_10
 10
       45.05417
 20
       15.38226
 30
        7.80210
  0
VERTEX
  8
ZONE_ONE_10
 10
       32.26802
 20
       15.38226
 30
        7.80210
  0
VERTEX
  8
ZONE_ONE_10
 10
       29.21657
 20
        8.67381
 30
       12.33240
  0
SEQEND
  8
ZONE_ONE_10
999
ZONE ONE:234D00
  0
POLYLINE
  8
ZONE_ONE_11
 62
 15
 66
  1
 10
 0.0
 20
 0.0
 30
        7.80210
 70
   9
 40
 0.55
 41
 0.55
  0
VERTEX
  8
ZONE_ONE_11
 10
       29.21657
 20
        8.67381
 30
       12.33240
  0
VERTEX
  8
ZONE_ONE_11
 10
       32.26802
 20
        1.96536
 30
        7.80210
  0
VERTEX
  8
ZONE_ONE_11
 10
       45.05417
 20
        1.96536
 30
        7.80210
  0
VERTEX
  8
ZONE_ONE_11
 10
       48.71657
 20
        8.67381
 30
       12.33240
  0
SEQEND
  8
ZONE_ONE_11
999
ZONE ONE:A53C53
  0
POLYLINE
  8
ZONE_ONE_12
 62
 15
 66
  1
 10
 0.0
 20
 0.0
 30
        5.97177
 70
   9
 40
 0.55
 41
 0.55
  0
VERTEX
  8
ZONE_ONE_12
 10
       32.23433
 20
        1.96536
 30
        7.80210
  0
VERTEX
  8
ZONE_ONE_12
 10
       32.23433
 20
        0.11052
 30
        5.97177
  0
VERTEX
  8
ZONE_ONE_12
 10
       45.05417
 20
        0.11052
 30
        5.97177
  0
VERTEX
  8
ZONE_ONE_12
 10
       45.05417
 20
        1.96536
 30
        7.80210
  0
SEQEND
  8
ZONE_ONE_12
999
ZONE ONE:714A69
  0
POLYLINE
  8
ZONE_ONE_13
 62
 15
 66
  1
 10
 0.0
 20
 0.0
 30
        6.33569
 70
   9
 40
 0.55
 41
 0.55
  0
VERTEX
  8
ZONE_ONE_13
 10
       45.02451
 20
       15.25969
 30
        7.92277
  0
VERTEX
  8
ZONE_ONE_13
 10
       45.02451
 20
       17.25619
 30
        6.33569
  0
VERTEX
  8
ZONE_ONE_13
 10
       32.20467
 20
       17.25619
 30
        6.33569
  0
VERTEX
  8
ZONE_ONE_13
 10
       32.20467
 20
       15.25969
 30
        7.92277
  0
SEQEND
  8
ZONE_ONE_13
  0
ENDSEC
  0
EOF
